@<TRIPOS>MOLECULE
/home/gecht/workdir/trimmed_ipdb/3o6t_PX5_1_C_117__G___.ipdb
 30 32 0 0 0
SMALL
GASTEIGER

@<TRIPOS>ATOM
      1  C1         7.8140   10.2200    4.5730 C.ar  117  PX5117     -0.0597
      2  C2         8.3890   10.8830    3.5490 C.ar  117  PX5117     -0.0352
      3  C3         9.7140   11.2650    3.5910 C.ar  117  PX5117      0.0786
      4  C4        10.4930   10.9980    4.6590 C.ar  117  PX5117      0.0393
      5  C5         9.9190   10.3290    5.7250 C.ar  117  PX5117     -0.0459
      6  C6         8.5910    9.9590    5.6580 C.ar  117  PX5117     -0.0606
      7  S7        12.0300   11.5240    4.5260 S.2   117  PX5117     -0.0692
      8  C8        11.6840   12.0890    3.0130 C.ar  117  PX5117      0.1110
      9  N9        10.4280   11.9170    2.6940 N.ar  117  PX5117     -0.2411
     10  C10       12.6030   12.8370    2.1090 C.3   117  PX5117      0.1147
     11  C11       12.1220   12.6830    0.7300 C.3   117  PX5117     -0.0112
     12  C12       12.0360   13.7490   -0.0260 C.3   117  PX5117      0.0088
     13  C13       11.3760   14.9130    0.5570 C.2   117  PX5117      0.1336
     14  C14       11.5310   15.0970    2.0400 C.3   117  PX5117      0.0088
     15  C15       12.6960   14.2940    2.5650 C.3   117  PX5117     -0.0112
     16  O16       13.8790   12.2980    2.0480 O.3   117  PX5117     -0.3819
     17  O17       10.7180   15.6590   -0.1250 O.2   117  PX5117     -0.2974
     18 H           6.8263    9.9233    4.5348 H     117  PX5117      0.0618
     19 H           7.8250   11.1098    2.7150 H     117  PX5117      0.0639
     20 H          10.4790   10.1084    6.5633 H     117  PX5117      0.0629
     21 H           8.1719    9.4656    6.4617 H     117  PX5117      0.0618
     22 H          11.1432   12.2541    0.7833 H     117  PX5117      0.0301
     23 H          12.8736   12.0867    0.2562 H     117  PX5117      0.0301
     24 H          11.4957   13.4779   -0.9089 H     117  PX5117      0.0343
     25 H          13.0468   14.0549   -0.1978 H     117  PX5117      0.0343
     26 H          10.6352   14.7745    2.5283 H     117  PX5117      0.0343
     27 H          11.7135   16.1325    2.2381 H     117  PX5117      0.0343
     28 H          13.6075   14.7183    2.1989 H     117  PX5117      0.0301
     29 H          12.6753   14.3199    3.6345 H     117  PX5117      0.0301
     30 H          13.8260   11.3735    1.7592 H     117  PX5117      0.2107
@<TRIPOS>BOND
     1     1     2   ar
     2     1     6   ar
     3     2     3   ar
     4     3     4   ar
     5     3     9   ar
     6     4     5   ar
     7     4     7   ar
     8     5     6   ar
     9     7     8   ar
    10     8     9   ar
    11     8    10    1
    12    10    11    1
    13    10    15    1
    14    10    16    1
    15    11    12    1
    16    12    13    1
    17    13    14    1
    18    13    17    2
    19    14    15    1
    20     1    18    1
    21     2    19    1
    22     5    20    1
    23     6    21    1
    24    11    22    1
    25    11    23    1
    26    12    24    1
    27    12    25    1
    28    14    26    1
    29    14    27    1
    30    15    28    1
    31    15    29    1
    32    16    30    1
